#!/bin/ksh
#
#################################################
# settings
#################################################

#Define Label for queue
QLabel=ceu

#Define directories
indir=/home/scratch/users/stephan.rasp/Case1_20070720/d1euin
outdir=/home/scratch/users/stephan.rasp/Case1_20070720/d2euout

#Define time properties
date=2007071900
hstart=0
hstop=120
hincbound=6

#Define grid
startlon=-19.0; startlat=-17.0; ie=609; je=545
pollon=-170.0; pollat=40.0

#Define parallelization
NPX=8
NPY=4
NPIO=0

#Define executable
COSMOEXE=/usr/users/stephan.rasp/cosmo_131108_5.00_traj/cosmoexe_pur

#Folgende Änderungen zu DWD-Einstellungen wurden gemacht:
# - Gebiet wurde verkleinert
# - Satsimulatoren wurden abgeschaltet: luse_rttov=.FALSE.,
# - Diagnostics wurden entfernt
# - Verzeichnisse in GRIBIN und GRIBOUT wurden angepasst
# - Latent Heat Nudging wurde abgeschaltet: lnudge  =.false.,
# - InputSat wurde gelöscht
# - lana_qr_qs=.FALSE., llb_qr_qs=.FALSE., lana_rho_snow=.FALSE.,
# - hincbound=3.0, lsso=.FALSE.,
# - llake=.FALSE., lseaice=.FALSE.
# - ldfi=.FALSE.,
# - Zum Output hinzugefügt: QR,QS


#################################################
# script
#################################################

#Calculade Nodes
NP1=`expr $NPX \* $NPY`
NP=`expr $NP1 + $NPIO`
N1=`expr $NP + 15`
NODES=`expr $N1 \/ 16`

#Built output directory
mkdir -p $outdir
#Copy this runscript
cp $0 $outdir/.

#Change to working and output directory
cd $outdir
rm -f INPUT*

#################################################
# INPUT-files
#################################################
cat > INPUT_ORG << end_input_org
 &LMGRID
  startlat_tot  = $startlat, startlon_tot  = $startlon,
  pollat=$pollat, pollon=$pollon, dlat=0.0625, dlon=0.0625,
  ie_tot=$ie, je_tot=$je, ke_tot=40,
 /
 &RUNCTL
  hstart = $hstart,   hstop  = $hstop,    dt      = 60.0,    ydate_ini='$date',
  nprocx = $NPX,  nprocy = $NPY,   nprocio = $NPIO,
  lphys      = .TRUE.,   luse_rttov    = .FALSE.,   luseobs = .FALSE., leps = .FALSE.,
  lreorder   = .FALSE.,  lreproduce    = .TRUE.,   itype_timing = 4,
  ldatatypes = .FALSE.,  ltime_barrier = .FALSE.,  ncomm_type=3,
  nboundlines=3, idbg_level = 100, lartif_data=.FALSE,
  ldfi=.FALSE.,
 /
 &TUNING
  c_soil   =   1.0,
  clc_diag =   0.5,
  crsmin   = 150.0,
  qc0      =   0.0,
  q_crit   =   4.0,
  qi0      =   0.0,
  rat_can  =   1.0,
  rat_lam  =   1.0,
  tur_len  = 500.0,
  v0snow   =  25.0,
  wichfakt =   0.0,
 /
end_input_org

cat > INPUT_INI  << end_input_ini
 &INICTL
  ndfi  = 1, 
  nfilt = 1,
  tspan = 3600.0,
  dtbak = 60.0,
  dtfwd = 60.0,
  taus  = 3600.0,
 /
end_input_ini

cat > INPUT_SAT  << end_input_sat
 &SATCTL
 /
end_input_sat

cat > INPUT_IO  << end_input_io
 &IOCTL
  lasync_io=.FALSE., l_ke_in_gds=.TRUE., ngribout=1, yform_read='apix',
  nhour_restart=1,1,1, ydir_restart='$outdir',
 /
 &DATABASE
 /
 &GRIBIN
  lan_t_so0=.TRUE., lan_t_cl=.TRUE., lan_w_cl=.TRUE., lan_vio3=.TRUE.,
  lan_hmo3=.TRUE., lan_plcov=.TRUE., lan_lai=.TRUE., lan_rootdp=.TRUE.,
  lan_t_snow=.TRUE., lan_w_i=.TRUE., lan_w_snow=.TRUE., lan_rho_snow=.FALSE.,
  hincbound=$hincbound, lan_w_so=.TRUE.,
  lchkini=.TRUE.,    lchkbd =.TRUE., lbdana=.FALSE.,
  lana_qi=.TRUE.,    llb_qi=.TRUE.,  lana_rho_snow=.FALSE., 
  lana_qr_qs=.FALSE., llb_qr_qs=.FALSE.,
  ydirini='$indir',
  ydirbd='$indir',
 /
 &GRIBOUT
    hcomb=0,$hstop,3., lanalysis=.false., lcheck=.true.,
    lwrite_const=.true., l_fi_filter=.true.,
    ydir='$outdir', yform_write='api1',
    yvarml='U         ','V         ','W         ','T         ',
	   'QV        ','QC        ','QI        ','P         ',
	   'TKE       ','CLC       ','QR        ','QS        ',
	   'PS        ','T_SNOW    ','T_S       ','W_SNOW    ',
	   'QV_S      ','W_I       ','RAIN_GSP  ','SNOW_GSP  ',
	   'RAIN_CON  ','SNOW_CON  ','U_10M     ','V_10M     ',
	   'T_2M      ','TD_2M     ','TMIN_2M   ','TMAX_2M   ',
	   'VMAX_10M  ','TCM       ','TCH       ','CLCT      ',
	   'CLCH      ','CLCM      ','CLCL      ','ALB_RAD   ',
	   'ASOB_S    ','ATHB_S    ','ASOB_T    ','ATHB_T    ',
	   'APAB_S    ','ASWDIR_S  ','ASWDIFD_S ','ASWDIFU_S ',
	   'TOT_PREC  ','Z0        ','AUMFL_S   ','AVMFL_S   ',
	   'ASHFL_S   ','ALHFL_S   ','BAS_CON   ','TOP_CON   ',
	   'HTOP_DC   ','RUNOFF_S  ','RUNOFF_G  ','PMSL      ',
	   'T_G       ','HTOP_CON  ','HBAS_CON  ','HZEROCL   ',
	   'CLCT_MOD  ','CLDEPTH   ','TDIV_HUM  ','TWATER    ',
	   'AEVAP_S   ','CAPE_CON  ','TQI       ','TQC       ',
	   'TQV       ','TQR       ','TQS       ','T_SO      ',
	   'W_SO      ','W_SO_ICE  ','FRESHSNW  ',
	   'SNOWLMT   ','RHO_SNOW  ','H_SNOW    ',
	   'RELHUM_2M ','ZHD       ','ZTD       ','ZWD       ',
	   'CAPE_ML   ','CIN_ML    ',
	   'T_MNW_LK  ','T_WML_LK  ','T_BOT_LK  ','C_T_LK    ',
	   'H_ML_LK   ','T_ICE     ','H_ICE     ',
/
end_input_io

cat > INPUT_DYN << end_input_dyn
 &DYNCTL
    l2tls=.true.,
    lcond=.true.,
    irunge_kutta=1,
    irk_order=3,
    iadv_order=3,
    y_scalar_advect='BOTT2_STRANG',
    itype_fast_waves=2,
    itype_bbc_w=114,
    ldyn_bbc=.false.,
    l_diff_Smag=.true.,
    itype_hdiff=2,
    hd_corr_p_bd=0.0,
    hd_corr_p_in=0.0,
    hd_corr_trcr_bd=0.0,
    hd_corr_trcr_in=0.0,
    hd_corr_t_bd=0.0,
    hd_corr_t_in=0.0,
    hd_corr_u_bd=0.25,
    hd_corr_u_in=0.25,
    hd_dhmax=250.,
    itype_outflow_qrsg=1,
    ldiabf_lh=.true.,
    lexpl_lbc=.true.,
    lspubc=.true.,
    nrdtau=5,
    rlwidth=85000.0,
    xkd=0.1,
    betasw=0.4,
    epsass=0.15,
    divdamp_slope=100.,
 /
end_input_dyn

cat > INPUT_PHY << end_input_phy
 &PHYCTL
    lgsp=.TRUE.,
      itype_gscp=3,
    lrad=.TRUE.,
      nradcoarse=1,
      lradf_avg=.FALSE.
      hincrad=1.0,
      lforest=.TRUE.,
    ltur=.TRUE.,
      ninctura=1,
      lexpcor=.FALSE.,
      ltmpcor=.FALSE.,
      lprfcor=.FALSE.,
      lnonloc=.FALSE.,
      lcpfluc=.FALSE.,
      limpltkediff=.TRUE.,
      itype_turb=3,
      imode_turb=1,
      itype_tran=2,
      imode_tran=1,
      itype_wcld=2,
      icldm_rad =4,
      icldm_turb=2,
      icldm_tran=0,
      itype_synd=2,
    lsoil=.TRUE.,
      itype_evsl=2,
      itype_trvg=2,
      lmulti_layer=.TRUE.,
      lmelt=.TRUE.,
      lmelt_var=.TRUE.,
      ke_soil = 7,
      czml_soil = 0.005, 0.02, 0.06, 0.18, 0.54, 1.62, 4.86, 14.58,
    llake=.FALSE.,
    lseaice=.FALSE.,
    lconv=.TRUE.,
      nincconv=4,
      itype_conv=0,
      lcape=.FALSE.,
    lsso=.TRUE.,
      ltkesso=.TRUE.,
    lexpcor=.false.,
    itype_albedo=1,
    lconf_avg=.true.,
    lconv_inst=.false.,
 /
end_input_phy

# itype_albedo=3,
# lseaice=.true.,
# llake=.true.,
# lsso=.true., ltkesso=.true.,

cat > INPUT_DIA << end_input_dia
 &DIACTL
  nincmeanval=0,
 /
end_input_dia

cat > INPUT_EPS << end_input_eps
 &EPSCTL
  iepsmem=0, iepstyp=55, iepstot=15,
 /
end_input_eps

cat > INPUT_ASS << end_input_ass
 &NUDGING
  lnudge  =.false.,
 /
end_input_ass

#################################################
# jobfile-file und execution
#################################################

rm -f batchjob
rm -f YU* M_* l* cosmo.out 

#batchjob-file generieren
echo "#$ -S /bin/ksh" >> batchjob
echo "#$ -cwd" >> batchjob
echo "#$ -N $QLabel" >> batchjob
echo "#$ -pe mpich $NP" >> batchjob
echo "#$ -V" >> batchjob
echo "#$ -j y" >> batchjob
echo "#$ -R y" >> batchjob
echo "#$ -q eight">>batchjob
echo "#$ -M s.rasp@physik.uni-muenchen.de" >> batchjob
echo "#$ -m n" >> batchjob
echo "#$ -o $outdir/cosmo.out" >> batchjob
echo /home/opt/openmpi-1.6.4/bin/mpirun -np $NP $COSMOEXE >> batchjob

#execute
chmod u+x batchjob
qsub batchjob
rm -f batchjob

# /home/opt/openmpi-1.6.4/bin/mpirun -np $NP $COSMOEXE


