#!/bin/ksh
#
# Sample Trajectory output
#
#################################################
# settings
#################################################

#Define Label for queue
QLabel=cde

#Define directories
indir=/home/scratch/users/stephan.rasp/Case1_20070720/d3dein
outdir=/home/scratch/users/stephan.rasp/Case1_20070720/d4deout_q

#Define time properties
date=2007071918
hstart=0
hstop=102
hincbound=3

#Define grid
startlon=-14; startlat=-12; ie=1121; je=961
pollon=-170.0; pollat=40.0

#Define parallelization
NPX=8
NPY=8
NPIO=0

#Define executable
COSMOEXE=/usr/users/stephan.rasp/cosmo_131108_5.00_traj_restart/cosmoexe_pur


#################################################
# script
#################################################

#Calculade Nodes
NP1=`expr $NPX \* $NPY`
NP=`expr $NP1 + $NPIO`
N1=`expr $NP + 15`
NODES=`expr $N1 \/ 16`

#Built output directory
mkdir -p $outdir
#Copy this runscript
cp $0 $outdir/.

#Change to working and output directory
cd $outdir
rm -f INPUT*

#################################################
# INPUT-files
#################################################
cat > INPUT_ORG << end_input_org
 &LMGRID
 startlat_tot=$startlat, startlon_tot=$startlon, dlat=0.025, dlon=0.025,
 ie_tot=$ie, je_tot=$je, ke_tot=50, pollat=$pollat, pollon=$pollon,
 /
 &RUNCTL
  hstart=$hstart, hstop=$hstop, dt=30.0, ydate_ini=$date, nprocx=$NPX, 
  nprocy=$NPY, nprocio=0,
  lphys=.TRUE., luse_rttov=.FALSE., luseobs=.FALSE., leps=.FALSE., 
  lreorder= .FALSE., lreproduce=.TRUE., itype_timing = 4, ldiagnos=.FALSE.,
  ldatatypes=.FALSE., ltime_barrier=.TRUE., ncomm_type=3, nboundlines= 3, 
  idbg_level=99, ldump_ascii=.FALSE., lartif_data=.FALSE., ltraj=.TRUE.,
 /
 &TUNING
  clc_diag=0.5, pat_len=500.0, tur_len=150.0, rlam_heat=1.0, rlam_mom=0.0, 
  rat_lam=1.0, rat_can=1.0, rat_sea=20.0, c_lnd=2.0, c_soil=1.0,
  c_sea=1.5, z0m_dia=0.2, crsmin=150.0, wichfakt=0.0, qc0=0.0002, q_crit=1.6, 
  mu_rain=0.5, rain_n0_factor=0.1

 /
end_input_org

cat > INPUT_IO  << end_input_io
 &IOCTL
  lasync_io=.FALSE, ngribout=2, yform_read='apix',
 /
 &DATABASE
 /
 &GRIBIN
  lan_t_so0=.TRUE., lan_t_cl=.TRUE., lan_w_cl=.TRUE., lan_vio3=.TRUE., 
  lan_hmo3=.TRUE., lan_plcov=.TRUE., lan_lai=.TRUE., lan_rootdp=.TRUE.,
  lan_t_snow=.TRUE., lan_w_i=.TRUE., lan_w_snow=.TRUE., lan_rho_snow=.FALSE., 
  hincbound=$hincbound, lchkini=.TRUE., lchkbd=.TRUE., lbdana=.FALSE.,
  lana_qi=.TRUE., llb_qi=.TRUE., lana_rho_snow=.FALSE., lana_qr_qs=.FALSE., 
  llb_qr_qs=.FALSE., lana_qg=.FALSE., llb_qg=.FALSE., lan_w_so=.TRUE.,
  ydirini='$indir', ydirbd='$indir',
 /
 &GRIBOUT
    hcomb=0,$hstop,1., lanalysis=.false., lcheck=.true.,
    lwrite_const=.true.,
    ydir='$outdir', yform_write='api1',
    yvarml='U         ','V         ','W         ','T         ',
	   'QV        ','QC        ','QI        ','P         ',
	   'TKE       ','CLC       ','QR        ','QS        ',
	   'PS        ','T_SNOW    ','T_S       ','W_SNOW    ',
	   'QV_S      ','W_I       ','RAIN_GSP  ','SNOW_GSP  ',
	   'RAIN_CON  ','SNOW_CON  ','U_10M     ','V_10M     ',
	   'T_2M      ','TD_2M     ','TMIN_2M   ','TMAX_2M   ',
	   'VMAX_10M  ','TCM       ','TCH       ','CLCT      ',
	   'CLCH      ','CLCM      ','CLCL      ','ALB_RAD   ',
	   'ASOB_S    ','ATHB_S    ','ASOB_T    ','ATHB_T    ',
	   'APAB_S    ','ASWDIR_S  ','ASWDIFD_S ','ASWDIFU_S ',
	   'TOT_PREC  ','Z0        ','AUMFL_S   ','AVMFL_S   ',
	   'ASHFL_S   ','ALHFL_S   ','BAS_CON   ','TOP_CON   ',
	   'HTOP_DC   ','RUNOFF_S  ','RUNOFF_G  ','PMSL      ',
	   'T_G       ','HTOP_CON  ','HBAS_CON  ','HZEROCL   ',
	   'CLCT_MOD  ','CLDEPTH   ','TDIV_HUM  ','TWATER    ',
	   'AEVAP_S   ','CAPE_CON  ','TQI       ','TQC       ',
	   'TQV       ','TQR       ','TQS       ','T_SO      ',
	   'W_SO      ','W_SO_ICE  ','FRESHSNW  ',
	   'SNOWLMT   ','RHO_SNOW  ','H_SNOW    ',
	   'RELHUM_2M ','ZHD       ','ZTD       ','ZWD       ',
	   'CAPE_ML   ','CIN_ML    ','POT_VORTIC',
	   'T_MNW_LK  ','T_WML_LK  ','T_BOT_LK  ','C_T_LK    ',
	   'H_ML_LK   ','T_ICE     ','H_ICE     ',
  /
 &GRIBOUT
  ncomb=0,12240,10, lcheck=.FALSE., lwrite_const=.FALSE., 
  nunit_of_time=1, ysuffix='_5m', ydir='$outdir', yform_write='api1',
  yvarml='TOT_PREC  ','CLCT      ','CAPE_ML   ','CIN_ML    ',
	 'PMSL      ',
  yvarpl='U         ','V         ','OMEGA     ','FI        ',
	 'T         ',
  plev=500.0,
 /
 
end_input_io

cat > INPUT_DYN << end_input_dyn
 &DYNCTL
    l2tls=.TRUE., lcond=.TRUE., ldyn_bbc=.TRUE., ldiabf_lh=.TRUE., 
    lexpl_lbc=.TRUE., y_scalar_advect='BOTT2_STRANG', lspubc=.TRUE., 
    betasw=0.4, epsass=0.15,
    itype_hdiff=2, hd_dhmax=250., hd_corr_trcr_bd=0.0, hd_corr_t_bd=0.75, 
    hd_corr_u_bd=0.75, hd_corr_p_bd=0.75, hd_corr_trcr_in=0.0, hd_corr_t_in=0.0, 
    l_diff_Smag=.TRUE.,
    hd_corr_u_in=0.1,  hd_corr_p_in=0.0, irk_order=3, iadv_order=5, nrdtau=5, 
    xkd=0.1, rlwidth=50000.0, itype_outflow_qrsg=2, itype_bbc_w=2,
 /
end_input_dyn

cat > INPUT_PHY << end_input_phy
 &PHYCTL
    lgsp=.TRUE., itype_gscp=4,
    lrad=.TRUE., nradcoarse=2, lradf_avg=.TRUE. nincrad=15, lforest=.TRUE.,
    ltur=.TRUE., ninctura=1, lexpcor=.FALSE., ltmpcor=.FALSE., lprfcor=.FALSE., 
    lnonloc=.FALSE., lcpfluc=.FALSE., itype_turb=3, imode_turb=1,
    itype_tran=2, imode_tran=1, itype_wcld=2, icldm_rad=4, icldm_turb=2, 
    icldm_tran=0, itype_synd=2, limpltkediff=.TRUE., ltkesso=.FALSE.,
    lsoil=.TRUE., itype_evsl=2, itype_trvg=2, lmulti_layer=.TRUE., lmelt=.TRUE., 
    lmelt_var=.TRUE., ke_soil = 7,
    czml_soil = 0.005, 0.02, 0.06, 0.18, 0.54, 1.62, 4.86, 14.58,
    lconv=.FALSE., lcape=.FALSE., lconf_avg=.TRUE., lconv_inst=.TRUE., 
    itype_conv=3, nincconv=10,
    lsso=.FALSE., lseaice=.FALSE.,
 /
end_input_phy

cat > INPUT_DIA << end_input_dia
 &DIACTL
  n0meanval=0,
 /
end_input_dia

cat > INPUT_TRAJ << end_input_traj
  &TRAJCTL
     istart_mode_traj=2,
     hstop_traj=102.0,
     hcomb_start_traj=6, 66, 3, 
     ydir_traj='$outdir',
     
startfile_traj=
'/usr/users/stephan.rasp/repositories/projecttraj/cosmo_runfiles/Case1_20070720/coarse.sf',
     ninc_out_traj = 10,
     tracevar_traj = 'T', 'P', 'QR', 'QC', 'QV', 'RELHUM','POT_VORTIC', 'QI', 'QS'
  /
end_input_traj



#################################################
# jobfile-file und execution
#################################################
rm -f batchjob
rm -f YU* M_* l* cosmo.out 

#batchjob-file generieren
echo "#$ -S /bin/ksh" >> batchjob
echo "#$ -cwd" >> batchjob
echo "#$ -N $QLabel" >> batchjob
# echo "#$ -pe mpich $NP" >> batchjob
#Infiniband
echo "#$ -pe mpiib $NP" >> batchjob
echo "#$ -V" >> batchjob
echo "#$ -j y" >> batchjob
echo "#$ -R y" >> batchjob
echo "#$ -q eight">>batchjob
echo "#$ -M s.rasp@physik.uni-muenchen.de" >> batchjob
echo "#$ -m n" >> batchjob
# echo "#$ -binding linear:1" >> batchjob
echo "#$ -l h_rt=200:00:00" >> batchjob
echo "#$ -o $outdir/cosmo.out" >> batchjob
echo /home/opt/openmpi-1.8.3/bin/mpirun -mca btl self,tcp -np $NP $COSMOEXE >> batchjob

#execute
chmod u+x batchjob
qsub batchjob
rm -f batchjob

# /home/opt/openmpi-1.6.4/bin/mpirun -np $NP $COSMOEXE
